5
Coordinates from ORCA-job CH3Br E -2636.837952253761
  C          -0.00704388104402     -0.00704405085494     -0.00704384761733
  Br          1.10483912377306      1.10483928261284      1.10483909517336
  H          -0.63149781495661      0.64195743100544     -0.63149781078498
  H           0.64195725999018     -0.63149794699591     -0.63149791481944
  H          -0.63149793803701     -0.63149796604183      0.64195722777400
