5
Coordinates from ORCA-job chfclbr E -3196.508635260746
  C           0.13734157593741      0.23090707912145      0.09203529897536
  H           0.77307253484289      0.83696765521719      0.75021404266785
  F          -0.62571970174938      1.01954810684307     -0.66309144908977
  Cl          1.17705976833776     -0.75823304570596     -0.93030505821136
  Br         -0.98499742764308     -0.85243304575015      1.22790391538352
