5
Coordinates from ORCA-job CH3Cl E -500.959284494713
  C      -0.007049     -0.007049     -0.007049
  Cl      1.104843      1.104843      1.104843
  H      -0.631498      0.641958     -0.631498
  H       0.641958     -0.631498     -0.631498
  H      -0.631498     -0.631498      0.641958
5
Coordinates from ORCA-job CH3Cl E -500.965963960318
  C       0.000783      0.000783      0.000783
  Cl      1.044989      1.044989      1.044989
  H      -0.616177      0.663338     -0.616177
  H       0.663339     -0.616177     -0.616177
  H      -0.616177     -0.616177      0.663338
5
Coordinates from ORCA-job CH3Cl E -500.966321296861
  C       0.008170      0.008170      0.008170
  Cl      1.032366      1.032366      1.032365
  H      -0.613344      0.662909     -0.613344
  H       0.662909     -0.613344     -0.613344
  H      -0.613344     -0.613344      0.662909
5
Coordinates from ORCA-job CH3Cl E -500.966430853436
  C       0.011139      0.011139      0.011139
  Cl      1.036675      1.036675      1.036675
  H      -0.614765      0.658473     -0.614765
  H       0.658473     -0.614765     -0.614765
  H      -0.614765     -0.614765      0.658473
5
Coordinates from ORCA-job CH3Cl E -500.966464906812
  C       0.014646      0.014646      0.014646
  Cl      1.039558      1.039558      1.039559
  H      -0.615790      0.654132     -0.615790
  H       0.654132     -0.615790     -0.615790
  H      -0.615790     -0.615789      0.654132
5
Coordinates from ORCA-job CH3Cl E -500.966464932177
  C       0.014690      0.014690      0.014690
  Cl      1.039667      1.039667      1.039668
  H      -0.615822      0.654042     -0.615822
  H       0.654042     -0.615821     -0.615821
  H      -0.615821     -0.615821      0.654042
