5
Coordinates from ORCA-job CH3Cl E -500.966464932177
  C           0.01469013986030      0.01469027569944      0.01469005165152
  Cl          1.03966745185997      1.03966709522021      1.03966753072113
  H          -0.61582180831757      0.65404203536037     -0.61582171227047
  H           0.65404225281374     -0.61582139697029     -0.61582132782956
  H          -0.61582128649083     -0.61582125958415      0.65404220745299
