5
Coordinates from ORCA-job chfclbr E -3194.223039150592
  C      -0.007044     -0.007044     -0.007044
  H       1.104839      1.104839      1.104839
  F      -0.631498      0.641957     -0.631498
  Cl      0.641957     -0.631498     -0.631498
  Br     -0.631498     -0.631498      0.641957
5
Coordinates from ORCA-job chfclbr E -3194.768517269053
  C      -0.002156      0.009316     -0.007346
  H       1.100306      1.104538      1.098371
  F      -0.633258      0.661193     -0.637057
  Cl      0.674374     -0.644654     -0.657325
  Br     -0.662508     -0.653637      0.680114
5
Coordinates from ORCA-job chfclbr E -3195.187167448385
  C       0.002780      0.025508     -0.006645
  H       1.095436      1.103641      1.091910
  F      -0.636514      0.681809     -0.643552
  Cl      0.707421     -0.658858     -0.682925
  Br     -0.692367     -0.675344      0.717969
5
Coordinates from ORCA-job chfclbr E -3195.640265120423
  C       0.010931      0.048782     -0.003289
  H       1.087097      1.100652      1.081758
  F      -0.644878      0.716448     -0.655627
  Cl      0.758031     -0.682010     -0.720105
  Br     -0.734425     -0.707115      0.774020
5
Coordinates from ORCA-job chfclbr E -3196.019055454362
  C       0.024689      0.078453      0.005523
  H       1.072189      1.091875      1.064705
  F      -0.660967      0.769715     -0.675238
  Cl      0.825431     -0.714614     -0.764820
  Br     -0.784585     -0.748673      0.846586
5
Coordinates from ORCA-job chfclbr E -3196.234679557083
  C       0.041114      0.108993      0.017613
  H       1.049401      1.075294      1.039590
  F      -0.674307      0.822219     -0.691544
  Cl      0.891964     -0.743660     -0.806330
  Br     -0.831416     -0.786089      0.917428
5
Coordinates from ORCA-job chfclbr E -3196.339326626550
  C       0.056493      0.135158      0.029654
  H       1.024152      1.055843      1.012234
  F      -0.681318      0.863092     -0.701032
  Cl      0.945194     -0.763922     -0.838221
  Br     -0.867764     -0.813415      0.974123
5
Coordinates from ORCA-job chfclbr E -3196.423708513199
  C       0.082980      0.173209      0.052519
  H       0.964600      1.004358      0.949623
  F      -0.679659      0.916146     -0.702355
  Cl      1.013147     -0.779202     -0.868918
  Br     -0.904311     -0.837755      1.045887
5
Coordinates from ORCA-job chfclbr E -3196.476321606616
  C       0.111571      0.210575      0.078368
  H       0.887584      0.935679      0.869426
  F      -0.667173      0.962716     -0.692485
  Cl      1.072822     -0.782631     -0.887139
  Br     -0.928047     -0.849582      1.108586
5
Coordinates from ORCA-job chfclbr E -3196.504432750407
  C       0.138475      0.244001      0.103177
  H       0.805679      0.862074      0.784321
  F      -0.647651      1.000657     -0.675324
  Cl      1.122732     -0.777625     -0.896457
  Br     -0.942479     -0.852351      1.161041
5
Coordinates from ORCA-job chfclbr E -3196.506661192997
  C       0.149080      0.259219      0.112431
  H       0.777364      0.840599      0.753249
  F      -0.640687      1.018259     -0.670030
  Cl      1.149746     -0.780575     -0.909128
  Br     -0.958747     -0.860745      1.190235
5
Coordinates from ORCA-job chfclbr E -3196.507283052950
  C       0.145526      0.257360      0.108568
  H       0.792519      0.858214      0.767366
  F      -0.644900      1.017345     -0.674758
  Cl      1.152162     -0.787287     -0.918021
  Br     -0.968550     -0.868876      1.193602
5
Coordinates from ORCA-job chfclbr E -3196.507501910890
  C       0.144485      0.256196      0.107708
  H       0.790084      0.856315      0.764613
  F      -0.641652      1.015549     -0.672019
  Cl      1.151724     -0.784488     -0.917105
  Br     -0.967885     -0.866816      1.193560
5
Coordinates from ORCA-job chfclbr E -3196.508026494381
  C       0.140076      0.252258      0.103525
  H       0.782795      0.852934      0.754745
  F      -0.629035      1.010597     -0.662222
  Cl      1.156531     -0.775725     -0.920391
  Br     -0.973611     -0.863307      1.201100
5
Coordinates from ORCA-job chfclbr E -3196.508152193228
  C       0.138653      0.250437      0.101836
  H       0.782193      0.853009      0.752768
  F      -0.626186      1.010193     -0.660509
  Cl      1.160877     -0.773315     -0.924115
  Br     -0.978780     -0.863567      1.206777
5
Coordinates from ORCA-job chfclbr E -3196.508301025113
  C       0.137225      0.246721      0.099681
  H       0.782548      0.851883      0.751246
  F      -0.624565      1.010743     -0.660244
  Cl      1.167658     -0.769291     -0.929287
  Br     -0.986109     -0.863299      1.215362
5
Coordinates from ORCA-job chfclbr E -3196.508429573690
  C       0.136372      0.241730      0.097846
  H       0.782685      0.848064      0.749960
  F      -0.624506      1.011679     -0.661197
  Cl      1.173443     -0.763736     -0.932514
  Br     -0.991237     -0.860981      1.222661
5
Coordinates from ORCA-job chfclbr E -3196.508553281156
  C       0.135963      0.234817      0.096023
  H       0.782073      0.840807      0.748486
  F      -0.625637      1.012970     -0.663106
  Cl      1.178434     -0.755852     -0.933672
  Br     -0.994076     -0.855986      1.229025
5
Coordinates from ORCA-job chfclbr E -3196.508596169384
  C       0.136257      0.231596      0.095507
  H       0.781010      0.836221      0.748019
  F      -0.626824      1.013729     -0.664279
  Cl      1.178828     -0.752241     -0.932098
  Br     -0.992514     -0.852548      1.229609
5
Coordinates from ORCA-job chfclbr E -3196.508605763368
  C       0.136605      0.231282      0.095528
  H       0.780208      0.835174      0.748238
  F      -0.627320      1.014154     -0.664557
  Cl      1.177726     -0.752222     -0.930717
  Br     -0.990462     -0.851631      1.228263
5
Coordinates from ORCA-job chfclbr E -3196.508610771650
  C       0.136827      0.231448      0.095413
  H       0.779422      0.835169      0.748546
  F      -0.627399      1.014642     -0.664512
  Cl      1.176948     -0.752991     -0.930014
  Br     -0.989042     -0.851512      1.227323
5
Coordinates from ORCA-job chfclbr E -3196.508619850445
  C       0.137151      0.231661      0.094786
  H       0.777524      0.835586      0.749177
  F      -0.627182      1.015954     -0.664194
  Cl      1.176010     -0.754832     -0.929261
  Br     -0.986747     -0.851612      1.226249
5
Coordinates from ORCA-job chfclbr E -3196.508629211614
  C       0.137392      0.231569      0.093567
  H       0.774986      0.836312      0.749879
  F      -0.626575      1.017871     -0.663647
  Cl      1.175772     -0.757041     -0.929150
  Br     -0.984818     -0.851954      1.226109
5
Coordinates from ORCA-job chfclbr E -3196.508634292490
  C       0.137413      0.231187      0.092386
  H       0.773223      0.836915      0.750247
  F      -0.625903      1.019324     -0.663167
  Cl      1.176440     -0.758331     -0.929793
  Br     -0.984416     -0.852339      1.227084
5
Coordinates from ORCA-job chfclbr E -3196.508635260746
  C       0.137342      0.230907      0.092035
  H       0.773073      0.836968      0.750214
  F      -0.625720      1.019548     -0.663091
  Cl      1.177060     -0.758233     -0.930305
  Br     -0.984997     -0.852433      1.227904
