4
Coordinates from ORCA-job H2CO E -114.490240542530
  C          -0.42844371241747     -1.07095896762217      0.00001011637343
  O           0.77093262648424     -1.07095897687090     -0.00001714509483
  H          -1.01701085444815     -0.13339650686726      0.00000404103252
  H          -1.01701105961860     -2.00852154863965      0.00004298768889
