4
Coordinates from ORCA-job H2CO E -114.346154775506
  C          -0.42109053878121     -1.07095901740955      0.00000993573582
  O           0.77527585148723     -1.07095894518647     -0.00000306041006
  H          -1.02285910962871     -0.12620282722959     -0.00000306064904
  H          -1.02285920307730     -2.01571521017440      0.00003618532328
