4
Coordinates from ORCA-job H2CO E -114.345973319933
  C      -0.428502     -1.070959      0.000010
  O       0.770237     -1.070959     -0.000003
  H      -1.016634     -0.132124     -0.000003
  H      -1.016634     -2.009794      0.000036
4
Coordinates from ORCA-job H2CO E -114.346140765555
  C      -0.424299     -1.070959      0.000010
  O       0.773708     -1.070959     -0.000003
  H      -1.020471     -0.124081     -0.000003
  H      -1.020471     -2.017837      0.000036
4
Coordinates from ORCA-job H2CO E -114.346150882156
  C      -0.422674     -1.070959      0.000010
  O       0.774260     -1.070959     -0.000003
  H      -1.021559     -0.124446     -0.000003
  H      -1.021559     -2.017472      0.000036
4
Coordinates from ORCA-job H2CO E -114.346154506742
  C      -0.421267     -1.070959      0.000010
  O       0.775010     -1.070959     -0.000003
  H      -1.022638     -0.125749     -0.000003
  H      -1.022638     -2.016170      0.000036
4
Coordinates from ORCA-job H2CO E -114.346154775506
  C      -0.421091     -1.070959      0.000010
  O       0.775276     -1.070959     -0.000003
  H      -1.022859     -0.126203     -0.000003
  H      -1.022859     -2.015715      0.000036
