4
Coordinates from ORCA-job H2CO E -114.492457917062
  C          -0.42335807642504     -1.07095851536120      0.00001092235216
  O           0.76692893187678     -1.07095962587361     -0.00000328111268
  H          -1.01755237369614     -0.13519907525805     -0.00000325674204
  H          -1.01755148175561     -2.00671878350713      0.00003561550257
