8
Coordinates from ORCA-job acrolein E -191.634570643460
  C          -3.74258406991809      0.87199618397728     -0.00038320541556
  C          -2.40796926048411      0.24772383397686     -0.00026163048937
  H          -3.76760837664455      1.96656436966179     -0.00035642276902
  H          -2.42317680651234     -0.87506102532923     -0.00024160444838
  O          -1.36990361802013      0.85980640403233     -0.00005437195246
  C          -4.85418211665638      0.12878342725221     -0.00052504825877
  H          -4.79623170397784     -0.96558943766893     -0.00055256170613
  H          -5.85254404778655      0.57347624409768     -0.00062515496030
